
*** ChampSim Multicore Out-of-Order Simulator ***

Warmup Instructions: 30000000
Simulation Instructions: 30000000
Number of CPUs: 1
LLC sets: 2048
LLC ways: 16
Off-chip DRAM Size: 4096 MB Channels: 1 Width: 64-bit Data Rate: 3200 MT/s

CPU 0 runs ../traces//pr-14.trace.xz
CPU 0 GSHARE branch predictor
TLB reply occupancy: 1
page address: 44977833598976
key present in dict: 94537362275968
number of prefetches in dict: 0
key present in dict: 94537362276352
number of prefetches in dict: 1
virtual address obtained: 94537362275968
prefetch_degree - i: 1
TLB reply occupancy: 1
page address: 44977833594880
key present in dict: 94537341304640
number of prefetches in dict: 0
key present in dict: 94537341304832
number of prefetches in dict: 1
key present in dict: 94537362275968
number of prefetches in dict: 0
key present in dict: 94537362276352
number of prefetches in dict: 6
virtual address obtained: 94537341304640
TLB reply occupancy: 1
page address: 44977833607168
key present in dict: 94537362280064
number of prefetches in dict: 0
key present in dict: 94537362280448
number of prefetches in dict: 1
key present in dict: 94537341304640
number of prefetches in dict: 0
key present in dict: 94537341304832
number of prefetches in dict: 3
key present in dict: 94537362275968
number of prefetches in dict: 0
key present in dict: 94537362276352
number of prefetches in dict: 6
virtual address obtained: 94537362280064
TLB reply occupancy: 1
page address: 44977833619456
key present in dict: 94537362284160
number of prefetches in dict: 0
key present in dict: 94537362280064
number of prefetches in dict: 0
key present in dict: 94537362280448
number of prefetches in dict: 6
key present in dict: 94537341304640
number of prefetches in dict: 0
key present in dict: 94537362284544
number of prefetches in dict: 1
key present in dict: 94537341304832
number of prefetches in dict: 3
key present in dict: 94537362275968
number of prefetches in dict: 0
key present in dict: 94537362276352
number of prefetches in dict: 6
virtual address obtained: 94537362284160
TLB reply occupancy: 1
page address: 44977833611264
key present in dict: 94537341308544
number of prefetches in dict: 0
key present in dict: 94537341308928
number of prefetches in dict: 1
key present in dict: 94537362284160
number of prefetches in dict: 0
key present in dict: 94537362280064
number of prefetches in dict: 0
key present in dict: 94537362280448
number of prefetches in dict: 6
key present in dict: 94537341304640
number of prefetches in dict: 0
key present in dict: 94537362284544
number of prefetches in dict: 6
key present in dict: 94537341304832
number of prefetches in dict: 3
key present in dict: 94537362275968
number of prefetches in dict: 0
key present in dict: 94537362276352
number of prefetches in dict: 6
virtual address obtained: 94537341308544
TLB reply occupancy: 1
page address: 44977833623552
key present in dict: 94537362288256
number of prefetches in dict: 0
key present in dict: 94537341308544
number of prefetches in dict: 0
key present in dict: 94537362288640
number of prefetches in dict: 1
key present in dict: 94537341308928
number of prefetches in dict: 6
key present in dict: 94537362284160
number of prefetches in dict: 0
key present in dict: 94537362280064
number of prefetches in dict: 0
key present in dict: 94537362280448
number of prefetches in dict: 6
key present in dict: 94537341304640
number of prefetches in dict: 0
key present in dict: 94537362284544
number of prefetches in dict: 6
key present in dict: 94537341304832
number of prefetches in dict: 3
key present in dict: 94537362275968
number of prefetches in dict: 0
key present in dict: 94537362276352
number of prefetches in dict: 6
virtual address obtained: 94537362288256
TLB reply occupancy: 1
page address: 44977833635840
key present in dict: 94537362275968
number of prefetches in dict: 0
key present in dict: 94537341304640
number of prefetches in dict: 0
key present in dict: 94537362276352
number of prefetches in dict: 6
key present in dict: 94537362280064
number of prefetches in dict: 0
key present in dict: 94537362280448
number of prefetches in dict: 6
key present in dict: 94537362284160
number of prefetches in dict: 0
key present in dict: 94537341308928
number of prefetches in dict: 6
key present in dict: 94537362292352
number of prefetches in dict: 0
key present in dict: 94537362288640
number of prefetches in dict: 6
key present in dict: 94537341304832
number of prefetches in dict: 3
key present in dict: 94537341308544
number of prefetches in dict: 0
key present in dict: 94537362284544
number of prefetches in dict: 6
key present in dict: 94537362288256
number of prefetches in dict: 0
key present in dict: 94537362292736
number of prefetches in dict: 1
virtual address obtained: 94537362292352
TLB reply occupancy: 1
page address: 44977833627648
key present in dict: 94537341313024
number of prefetches in dict: 1
key present in dict: 94537362275968
number of prefetches in dict: 0
key present in dict: 94537341304640
number of prefetches in dict: 0
key present in dict: 94537362276352
number of prefetches in dict: 6
key present in dict: 94537362280064
number of prefetches in dict: 0
key present in dict: 94537362280448
number of prefetches in dict: 6
key present in dict: 94537362284160
number of prefetches in dict: 0
key present in dict: 94537341312640
number of prefetches in dict: 0
key present in dict: 94537341308928
number of prefetches in dict: 6
key present in dict: 94537362292352
number of prefetches in dict: 0
key present in dict: 94537362288640
number of prefetches in dict: 6
key present in dict: 94537341304832
number of prefetches in dict: 3
key present in dict: 94537341308544
number of prefetches in dict: 0
key present in dict: 94537362284544
number of prefetches in dict: 6
key present in dict: 94537362288256
number of prefetches in dict: 0
key present in dict: 94537362292736
number of prefetches in dict: 6
virtual address obtained: 94537341312640
TLB reply occupancy: 1
page address: 44977833639936
key present in dict: 94537362296832
number of prefetches in dict: 1
key present in dict: 94537341313024
number of prefetches in dict: 6
key present in dict: 94537362275968
number of prefetches in dict: 0
key present in dict: 94537341304640
number of prefetches in dict: 0
key present in dict: 94537362276352
number of prefetches in dict: 6
key present in dict: 94537362280064
number of prefetches in dict: 0
key present in dict: 94537362280448
number of prefetches in dict: 6
key present in dict: 94537362284160
number of prefetches in dict: 0
key present in dict: 94537341312640
number of prefetches in dict: 0
key present in dict: 94537341308928
number of prefetches in dict: 6
key present in dict: 94537362292352
number of prefetches in dict: 0
key present in dict: 94537362288640
number of prefetches in dict: 6
key present in dict: 94537341304832
number of prefetches in dict: 3
key present in dict: 94537341308544
number of prefetches in dict: 0
key present in dict: 94537362284544
number of prefetches in dict: 6
key present in dict: 94537362288256
number of prefetches in dict: 0
key present in dict: 94537362296448
number of prefetches in dict: 0
key present in dict: 94537362292736
number of prefetches in dict: 6
virtual address obtained: 94537362296448
TLB reply occupancy: 1
page address: 44977833652224
key present in dict: 94537362300928
number of prefetches in dict: 1
number of prefetches in dict: 1
Caught signal: 2
